Circuit: * C:\Users\annik\OneDrive\Documents\ECE412_413\Test1\ECE412_5Gohm_10k_30k.asc

WARNING: Less than two connections to node nc_01.  This node is used by r3.
WARNING: Less than two connections to node nc_02.  This node is used by r7.
Per .tran options, skipping operating point for transient analysis.

Date: Mon Apr  7 21:43:07 2025
Total elapsed time: 0.336 seconds.

tnom = 27
temp = 27
method = modified trap
totiter = 3024
traniter = 3024
tranpoints = 1497
accept = 1474
rejected = 23
matrix size = 11
fillins = 0
solver = Normal
Avg thread counts: 2.9/4.9/4.9/2.9
Matrix Compiler1: 540 bytes object code size  1.2/1.0/[0.8]
Matrix Compiler2: 973 bytes object code size  0.8/1.4/[0.6]

